Version 4
SHEET 1 2196 680
WIRE 1184 -320 1136 -320
WIRE 1296 -320 1248 -320
WIRE 1136 -192 1136 -320
WIRE 1168 -192 1136 -192
WIRE 1296 -192 1296 -320
WIRE 1296 -192 1248 -192
WIRE 1776 -128 1744 -128
WIRE 1904 -128 1856 -128
WIRE 1024 -80 880 -80
WIRE 1136 -80 1136 -192
WIRE 1136 -80 1104 -80
WIRE 1168 -80 1136 -80
WIRE 1296 -64 1296 -192
WIRE 1296 -64 1232 -64
WIRE 1440 -64 1296 -64
WIRE 1600 -64 1520 -64
WIRE 1168 -48 1136 -48
WIRE -368 -16 -368 -48
WIRE -272 -16 -368 -16
WIRE 800 -16 672 -16
WIRE 1600 -16 1600 -64
WIRE 1744 -16 1744 -128
WIRE 1744 -16 1600 -16
WIRE 1776 -16 1744 -16
WIRE -368 0 -368 -16
WIRE 1904 0 1904 -128
WIRE 1904 0 1840 0
WIRE 2000 0 1904 0
WIRE 2176 0 2064 0
WIRE 1776 16 1744 16
WIRE 672 48 672 -16
WIRE 704 48 672 48
WIRE 1136 48 1136 -48
WIRE 800 64 800 -16
WIRE 800 64 768 64
WIRE 880 64 880 -80
WIRE 880 64 800 64
WIRE 2176 64 2176 0
WIRE 416 80 -16 80
WIRE 592 80 480 80
WIRE 704 80 592 80
WIRE 1232 96 1200 96
WIRE 1360 96 1312 96
WIRE 1744 112 1744 16
WIRE -16 144 -16 80
WIRE 2176 192 2176 144
WIRE 880 208 880 64
WIRE 928 208 880 208
WIRE 1024 208 1024 64
WIRE 1024 208 992 208
WIRE 1088 208 1024 208
WIRE 1200 208 1200 96
WIRE 1200 208 1168 208
WIRE 1232 208 1200 208
WIRE 1360 224 1360 96
WIRE 1360 224 1296 224
WIRE 1440 224 1360 224
WIRE 1600 224 1600 -16
WIRE 1600 224 1520 224
WIRE 1232 240 1200 240
WIRE -16 288 -16 224
WIRE 1200 336 1200 240
FLAG -16 -64 0
FLAG -16 -144 9V
FLAG 128 -64 0
FLAG 128 -144 5V
FLAG -16 288 0
FLAG 736 96 0
FLAG 736 32 9V
FLAG -368 80 0
FLAG -368 -128 9V
FLAG -272 -16 Vref
FLAG 592 160 Vref
FLAG 1264 256 0
FLAG 1264 192 9V
FLAG 1200 336 Vref
FLAG 1200 -32 0
FLAG 1200 -96 9V
FLAG 1136 48 Vref
FLAG 1808 32 0
FLAG 1808 -32 9V
FLAG 1744 112 Vref
FLAG 2176 192 0
SYMBOL voltage -16 128 R0
WINDOW 123 24 124 Left 2
WINDOW 39 0 0 Left 2
SYMATTR InstName V1
SYMATTR Value SINE(0 0.2 1k 0 0)
SYMATTR Value2 AC 0.1
SYMBOL voltage -16 -160 R0
WINDOW 123 0 0 Left 2
WINDOW 39 0 0 Left 2
SYMATTR InstName V2
SYMATTR Value 9
SYMBOL voltage 128 -160 R0
WINDOW 123 0 0 Left 2
WINDOW 39 24 44 Left 2
SYMATTR InstName V3
SYMATTR Value 5
SYMATTR SpiceLine Rser=30
SYMBOL Opamps\\AD795 736 0 R0
SYMATTR InstName U1
SYMBOL res -384 -144 R0
SYMATTR InstName R1
SYMATTR Value 10k
SYMBOL res -384 -16 R0
SYMATTR InstName R2
SYMATTR Value 10k
SYMBOL res 576 64 R0
SYMATTR InstName R3
SYMATTR Value 1Meg
SYMBOL cap 480 64 R90
WINDOW 0 0 32 VBottom 2
WINDOW 3 32 32 VTop 2
SYMATTR InstName C1
SYMATTR Value 100n
SYMBOL Opamps\\AD795 1264 160 R0
SYMATTR InstName U2
SYMBOL res 1328 80 R90
WINDOW 0 0 56 VBottom 2
WINDOW 3 32 56 VTop 2
SYMATTR InstName R4
SYMATTR Value 10k
SYMBOL res 1184 192 R90
WINDOW 0 0 56 VBottom 2
WINDOW 3 32 56 VTop 2
SYMATTR InstName R5
SYMATTR Value 10k
SYMBOL cap 992 192 R90
WINDOW 0 0 32 VBottom 2
WINDOW 3 32 32 VTop 2
SYMATTR InstName C2
SYMATTR Value 4.7n
SYMBOL Opamps\\AD795 1200 -128 R0
SYMATTR InstName U3
SYMBOL res 1264 -208 R90
WINDOW 0 0 56 VBottom 2
WINDOW 3 32 56 VTop 2
SYMATTR InstName R6
SYMATTR Value 10k
SYMBOL res 1120 -96 R90
WINDOW 0 0 56 VBottom 2
WINDOW 3 32 56 VTop 2
SYMATTR InstName R7
SYMATTR Value 10k
SYMBOL cap 1248 -336 R90
WINDOW 0 0 32 VBottom 2
WINDOW 3 32 32 VTop 2
SYMATTR InstName C3
SYMATTR Value 10n
SYMBOL Opamps\\AD795 1808 -64 R0
SYMATTR InstName U4
SYMBOL res 1872 -144 R90
WINDOW 0 0 56 VBottom 2
WINDOW 3 32 56 VTop 2
SYMATTR InstName R8
SYMATTR Value 10k
SYMBOL res 1536 -80 R90
WINDOW 0 0 56 VBottom 2
WINDOW 3 32 56 VTop 2
SYMATTR InstName R10
SYMATTR Value 10k
SYMBOL res 1536 208 R90
WINDOW 0 0 56 VBottom 2
WINDOW 3 32 56 VTop 2
SYMATTR InstName R11
SYMATTR Value 10k
SYMBOL cap 2064 -16 R90
WINDOW 0 0 32 VBottom 2
WINDOW 3 32 32 VTop 2
SYMATTR InstName C4
SYMATTR Value 100n
SYMBOL res 2192 160 R180
WINDOW 0 36 76 Left 2
WINDOW 3 36 40 Left 2
SYMATTR InstName R9
SYMATTR Value 1Meg
TEXT 536 376 Left 2 ;3.3n + 10k + 10k trimpot = 2.4k - 3.2k - 4.8k cutoff
TEXT 1320 56 Left 2 ;R4 may need to be 20k
TEXT -398 430 Left 2 !.ac dec 100 20 20k
