Version 4
SHEET 1 1768 680
WIRE -368 16 -368 -16
WIRE 416 96 416 48
WIRE -368 128 -368 96
WIRE -368 128 -432 128
WIRE -368 144 -368 128
WIRE 416 208 416 176
WIRE 512 208 416 208
WIRE 688 208 592 208
WIRE -368 256 -368 224
WIRE 1424 272 1280 272
WIRE 416 288 416 208
WIRE 464 288 416 288
WIRE 560 288 528 288
WIRE 1280 368 1280 272
WIRE 1312 368 1280 368
WIRE 416 384 416 288
WIRE 448 384 416 384
WIRE 1424 384 1424 272
WIRE 1424 384 1376 384
WIRE 1472 384 1424 384
WIRE 1616 384 1552 384
WIRE 1712 384 1616 384
WIRE 560 400 560 288
WIRE 560 400 512 400
WIRE 592 400 560 400
WIRE 688 400 688 208
WIRE 688 400 656 400
WIRE 752 400 688 400
WIRE 880 400 832 400
WIRE 1312 400 880 400
WIRE 1712 400 1712 384
WIRE 448 416 160 416
WIRE 1616 416 1616 384
WIRE 880 432 880 400
WIRE -176 496 -176 464
WIRE 1616 496 1616 480
WIRE 1712 496 1712 464
WIRE 880 512 880 496
WIRE -176 592 -176 576
FLAG -368 -16 9V
FLAG -176 592 0
FLAG -176 464 IN1
FLAG -432 128 0
FLAG -368 256 -9V
FLAG 480 432 -9V
FLAG 480 368 9V
FLAG 160 416 IN1
FLAG 416 48 0
FLAG 880 512 0
FLAG 1344 416 -9V
FLAG 1344 352 9V
FLAG 1616 496 0
FLAG 1712 496 0
SYMBOL voltage -368 0 R0
WINDOW 123 0 0 Left 0
WINDOW 39 0 0 Left 0
SYMATTR InstName V1
SYMATTR Value 9
SYMBOL voltage -176 480 R0
WINDOW 123 24 124 Left 2
WINDOW 39 24 152 Left 2
SYMATTR InstName V2
SYMATTR Value SINE(0 .1 80 10m 0 0 10)
SYMATTR Value2 AC 0.01 0
SYMBOL voltage -368 128 R0
WINDOW 123 0 0 Left 0
WINDOW 39 0 0 Left 0
SYMATTR InstName V3
SYMATTR Value 9
SYMBOL Opamps\\OP227 480 336 R0
SYMATTR InstName U1
SYMBOL diode 592 416 R270
WINDOW 0 32 32 VTop 2
WINDOW 3 0 32 VBottom 2
SYMATTR InstName D1
SYMATTR Value 1N914
SYMBOL res 608 192 R90
WINDOW 0 0 56 VBottom 2
WINDOW 3 32 56 VTop 2
SYMATTR InstName R1
SYMATTR Value 100k
SYMBOL res 400 80 R0
SYMATTR InstName R2
SYMATTR Value 10k
SYMBOL cap 864 432 R0
SYMATTR InstName C1
SYMATTR Value 1µ
SYMBOL res 848 384 R90
WINDOW 0 0 56 VBottom 2
WINDOW 3 32 56 VTop 2
SYMATTR InstName R4
SYMATTR Value 10k
SYMBOL Opamps\\OP227 1344 320 R0
SYMATTR InstName U3
SYMBOL zener 1632 480 R180
WINDOW 0 24 64 Left 2
WINDOW 3 24 0 Left 2
SYMATTR InstName D2
SYMATTR Value 1N750
SYMATTR Description Diode
SYMATTR Type diode
SYMBOL diode 464 304 R270
WINDOW 0 32 32 VTop 2
WINDOW 3 0 32 VBottom 2
SYMATTR InstName D3
SYMATTR Value 1N914
SYMBOL res 1568 368 R90
WINDOW 0 0 56 VBottom 2
WINDOW 3 32 56 VTop 2
SYMATTR InstName R3
SYMATTR Value 10k
SYMBOL cap 1696 400 R0
SYMATTR InstName C2
SYMATTR Value 10n
TEXT -452 624 Left 2 !.tran 300m
